data_image0
_chemical_formula_structural       Li48N16Li
_chemical_formula_sum              "Li49 N16"
_cell_length_a       7.01342
_cell_length_b       7.01352
_cell_length_c       29.936
_cell_angle_alpha    90
_cell_angle_beta     90
_cell_angle_gamma    120

_space_group_name_H-M_alt    "P 1"
_space_group_IT_number       1

loop_
  _space_group_symop_operation_xyz
  'x, y, z'

loop_
  _atom_site_type_symbol
  _atom_site_label
  _atom_site_symmetry_multiplicity
  _atom_site_fract_x
  _atom_site_fract_y
  _atom_site_fract_z
  _atom_site_occupancy
  Li  Li1       1.0  0.33332  0.16669  0.05111  1.0000
  Li  Li2       1.0  0.33332  0.66668  0.05111  1.0000
  Li  Li3       1.0  0.83332  0.16669  0.05111  1.0000
  Li  Li4       1.0  0.83332  0.66668  0.05111  1.0000
  Li  Li5       1.0  0.33286  0.16738  0.44447  1.0000
  Li  Li6       1.0  0.33503  0.66721  0.44447  1.0000
  Li  Li7       1.0  0.83268  0.16503  0.44447  1.0000
  Li  Li8       1.0  0.83222  0.66757  0.44009  1.0000
  Li  Li9       1.0  0.49946  0.00046  0.53766  1.0000
  Li  Li10      1.0  0.48609  0.49329  0.50543  1.0000
  Li  Li11      1.0  0.00674  0.01396  0.50537  1.0000
  Li  Li12      1.0  0.00719  0.49280  0.50449  1.0000
  Li  Li13      1.0  0.16611  0.33380  0.53766  1.0000
  Li  Li14      1.0  0.18092  0.84071  0.50476  1.0000
  Li  Li15      1.0  0.65932  0.31915  0.50483  1.0000
  Li  Li16      1.0  0.65976  0.84024  0.50569  1.0000
  Li  Li17      1.0  0.49998  0.00003  0.11575  1.0000
  Li  Li18      1.0  0.49998  0.50003  0.11575  1.0000
  Li  Li19      1.0  0.99998  0.00003  0.11575  1.0000
  Li  Li20      1.0  0.99998  0.50003  0.11575  1.0000
  Li  Li21      1.0  0.16664  0.33336  0.11575  1.0000
  Li  Li22      1.0  0.16664  0.83336  0.11575  1.0000
  Li  Li23      1.0  0.66665  0.33336  0.11575  1.0000
  Li  Li24      1.0  0.66665  0.83336  0.11575  1.0000
  Li  Li25      1.0  0.33331  0.16670  0.18145  1.0000
  Li  Li26      1.0  0.33331  0.66670  0.18145  1.0000
  Li  Li27      1.0  0.83331  0.16670  0.18145  1.0000
  Li  Li28      1.0  0.83331  0.66670  0.18145  1.0000
  Li  Li29      1.0  0.49998  0.00003  0.24646  1.0000
  Li  Li30      1.0  0.49998  0.50003  0.24646  1.0000
  Li  Li31      1.0  0.99997  0.00003  0.24646  1.0000
  Li  Li32      1.0  0.99997  0.50003  0.24646  1.0000
  Li  Li33      1.0  0.16664  0.33336  0.24646  1.0000
  Li  Li34      1.0  0.16664  0.83336  0.24646  1.0000
  Li  Li35      1.0  0.66664  0.33336  0.24646  1.0000
  Li  Li36      1.0  0.66664  0.83336  0.24646  1.0000
  Li  Li37      1.0  0.33324  0.16682  0.31243  1.0000
  Li  Li38      1.0  0.33364  0.66678  0.31243  1.0000
  Li  Li39      1.0  0.83321  0.16638  0.31243  1.0000
  Li  Li40      1.0  0.83297  0.66696  0.31122  1.0000
  Li  Li41      1.0  0.49978  0.00019  0.38089  1.0000
  Li  Li42      1.0  0.49916  0.49971  0.37637  1.0000
  Li  Li43      1.0  0.00029  0.00083  0.37638  1.0000
  Li  Li44      1.0  0.00020  0.49981  0.37642  1.0000
  Li  Li45      1.0  0.16645  0.33353  0.38089  1.0000
  Li  Li46      1.0  0.16720  0.83373  0.37641  1.0000
  Li  Li47      1.0  0.66627  0.33279  0.37641  1.0000
  Li  Li48      1.0  0.66618  0.83383  0.37636  1.0000
  N   N1        1.0  0.33331  0.16670  0.11488  1.0000
  N   N2        1.0  0.33331  0.66670  0.11488  1.0000
  N   N3        1.0  0.83331  0.16670  0.11488  1.0000
  N   N4        1.0  0.83331  0.66670  0.11488  1.0000
  N   N5        1.0  0.33331  0.16670  0.24589  1.0000
  N   N6        1.0  0.33331  0.66670  0.24589  1.0000
  N   N7        1.0  0.83331  0.16670  0.24589  1.0000
  N   N8        1.0  0.83331  0.66670  0.24589  1.0000
  N   N9        1.0  0.33318  0.16682  0.37778  1.0000
  N   N10       1.0  0.33326  0.66681  0.37778  1.0000
  N   N11       1.0  0.83318  0.16673  0.37778  1.0000
  N   N12       1.0  0.83314  0.66684  0.37505  1.0000
  N   N13       1.0  0.33293  0.16698  0.51072  1.0000
  N   N14       1.0  0.33275  0.66700  0.51072  1.0000
  N   N15       1.0  0.83295  0.16718  0.51072  1.0000
  N   N16       1.0  0.83336  0.66668  0.50368  1.0000
  Li  Li49      1.0  0.83822  0.66283  0.56526  1.0000
