data_image0
_chemical_formula_structural       Li108N36Li
_chemical_formula_sum              "Li109 N36"
_cell_length_a       7.31672
_cell_length_b       11.9012
_cell_length_c       30.4595
_cell_angle_alpha    90
_cell_angle_beta     90
_cell_angle_gamma    90

_space_group_name_H-M_alt    "P 1"
_space_group_IT_number       1

loop_
  _space_group_symop_operation_xyz
  'x, y, z'

loop_
  _atom_site_type_symbol
  _atom_site_label
  _atom_site_symmetry_multiplicity
  _atom_site_fract_x
  _atom_site_fract_y
  _atom_site_fract_z
  _atom_site_occupancy
  Li  Li1       1.0  0.00000  0.01257  0.03600  1.0000
  Li  Li2       1.0  0.50000  0.01257  0.03600  1.0000
  Li  Li3       1.0  0.25000  0.16667  0.02421  1.0000
  Li  Li4       1.0  0.75000  0.16667  0.02421  1.0000
  Li  Li5       1.0  0.00000  0.32076  0.03600  1.0000
  Li  Li6       1.0  0.50000  0.32076  0.03600  1.0000
  Li  Li7       1.0  0.00000  0.51257  0.03600  1.0000
  Li  Li8       1.0  0.50000  0.51257  0.03600  1.0000
  Li  Li9       1.0  0.25000  0.66667  0.02421  1.0000
  Li  Li10      1.0  0.75000  0.66667  0.02421  1.0000
  Li  Li11      1.0  0.00000  0.82076  0.03600  1.0000
  Li  Li12      1.0  0.50000  0.82076  0.03600  1.0000
  Li  Li13      1.0  0.00000  0.08283  0.09750  1.0000
  Li  Li14      1.0  0.50000  0.08283  0.09750  1.0000
  Li  Li15      1.0  0.00000  0.25051  0.09750  1.0000
  Li  Li16      1.0  0.50000  0.25051  0.09750  1.0000
  Li  Li17      1.0  0.25000  0.41667  0.09417  1.0000
  Li  Li18      1.0  0.75000  0.41667  0.09417  1.0000
  Li  Li19      1.0  0.00000  0.58283  0.09750  1.0000
  Li  Li20      1.0  0.50000  0.58283  0.09750  1.0000
  Li  Li21      1.0  0.00000  0.75051  0.09750  1.0000
  Li  Li22      1.0  0.50000  0.75051  0.09750  1.0000
  Li  Li23      1.0  0.25000  0.91667  0.09417  1.0000
  Li  Li24      1.0  0.75000  0.91667  0.09417  1.0000
  Li  Li25      1.0  0.00000  0.00215  0.15839  1.0000
  Li  Li26      1.0  0.50000  0.00215  0.15839  1.0000
  Li  Li27      1.0  0.25000  0.16667  0.15807  1.0000
  Li  Li28      1.0  0.75000  0.16667  0.15807  1.0000
  Li  Li29      1.0  0.00000  0.33118  0.15839  1.0000
  Li  Li30      1.0  0.50000  0.33118  0.15839  1.0000
  Li  Li31      1.0  0.00000  0.50215  0.15839  1.0000
  Li  Li32      1.0  0.50000  0.50215  0.15839  1.0000
  Li  Li33      1.0  0.25000  0.66667  0.15807  1.0000
  Li  Li34      1.0  0.75000  0.66667  0.15807  1.0000
  Li  Li35      1.0  0.00000  0.83118  0.15839  1.0000
  Li  Li36      1.0  0.50000  0.83118  0.15839  1.0000
  Li  Li37      1.0  0.00000  0.08177  0.22008  1.0000
  Li  Li38      1.0  0.50000  0.08177  0.22008  1.0000
  Li  Li39      1.0  0.00000  0.25157  0.22008  1.0000
  Li  Li40      1.0  0.50000  0.25157  0.22008  1.0000
  Li  Li41      1.0  0.25000  0.41667  0.21964  1.0000
  Li  Li42      1.0  0.75000  0.41667  0.21964  1.0000
  Li  Li43      1.0  0.00000  0.58177  0.22008  1.0000
  Li  Li44      1.0  0.50000  0.58177  0.22008  1.0000
  Li  Li45      1.0  0.00000  0.75157  0.22008  1.0000
  Li  Li46      1.0  0.50000  0.75157  0.22008  1.0000
  Li  Li47      1.0  0.25000  0.91667  0.21964  1.0000
  Li  Li48      1.0  0.75000  0.91667  0.21964  1.0000
  Li  Li49      1.0  0.00000  0.00197  0.28195  1.0000
  Li  Li50      1.0  0.50000  0.00197  0.28195  1.0000
  Li  Li51      1.0  0.25000  0.16667  0.28193  1.0000
  Li  Li52      1.0  0.75000  0.16667  0.28193  1.0000
  Li  Li53      1.0  0.00000  0.33137  0.28195  1.0000
  Li  Li54      1.0  0.50000  0.33137  0.28195  1.0000
  Li  Li55      1.0  0.00000  0.50197  0.28195  1.0000
  Li  Li56      1.0  0.50000  0.50197  0.28195  1.0000
  Li  Li57      1.0  0.25000  0.66667  0.28193  1.0000
  Li  Li58      1.0  0.75000  0.66667  0.28193  1.0000
  Li  Li59      1.0  0.00000  0.83137  0.28195  1.0000
  Li  Li60      1.0  0.50000  0.83137  0.28195  1.0000
  Li  Li61      1.0  0.00000  0.08178  0.34398  1.0000
  Li  Li62      1.0  0.50000  0.08178  0.34398  1.0000
  Li  Li63      1.0  0.00000  0.25155  0.34398  1.0000
  Li  Li64      1.0  0.50000  0.25155  0.34398  1.0000
  Li  Li65      1.0  0.25000  0.41667  0.34435  1.0000
  Li  Li66      1.0  0.75000  0.41667  0.34435  1.0000
  Li  Li67      1.0  0.00000  0.58178  0.34398  1.0000
  Li  Li68      1.0  0.50000  0.58178  0.34398  1.0000
  Li  Li69      1.0  0.00000  0.75155  0.34398  1.0000
  Li  Li70      1.0  0.50000  0.75155  0.34398  1.0000
  Li  Li71      1.0  0.25000  0.91667  0.34435  1.0000
  Li  Li72      1.0  0.75000  0.91667  0.34435  1.0000
  Li  Li73      1.0  0.00000  0.00204  0.40577  1.0000
  Li  Li74      1.0  0.50000  0.00204  0.40577  1.0000
  Li  Li75      1.0  0.25000  0.16667  0.40623  1.0000
  Li  Li76      1.0  0.75000  0.16667  0.40623  1.0000
  Li  Li77      1.0  0.00000  0.33129  0.40577  1.0000
  Li  Li78      1.0  0.50000  0.33129  0.40577  1.0000
  Li  Li79      1.0  0.00000  0.50204  0.40577  1.0000
  Li  Li80      1.0  0.50000  0.50204  0.40577  1.0000
  Li  Li81      1.0  0.25000  0.66667  0.40623  1.0000
  Li  Li82      1.0  0.75000  0.66667  0.40623  1.0000
  Li  Li83      1.0  0.00000  0.83129  0.40577  1.0000
  Li  Li84      1.0  0.50000  0.83129  0.40577  1.0000
  Li  Li85      1.0  0.00000  0.08289  0.46698  1.0000
  Li  Li86      1.0  0.50000  0.08289  0.46698  1.0000
  Li  Li87      1.0  0.00000  0.25045  0.46698  1.0000
  Li  Li88      1.0  0.50000  0.25045  0.46698  1.0000
  Li  Li89      1.0  0.25000  0.41667  0.47064  1.0000
  Li  Li90      1.0  0.75000  0.41667  0.47064  1.0000
  Li  Li91      1.0  0.00000  0.58289  0.46698  1.0000
  Li  Li92      1.0  0.50000  0.58289  0.46698  1.0000
  Li  Li93      1.0  0.00000  0.75045  0.46698  1.0000
  Li  Li94      1.0  0.50000  0.75045  0.46698  1.0000
  Li  Li95      1.0  0.25000  0.91667  0.47064  1.0000
  Li  Li96      1.0  0.75000  0.91667  0.47064  1.0000
  Li  Li97      1.0  0.00000  0.01261  0.52861  1.0000
  Li  Li98      1.0  0.50000  0.01261  0.52861  1.0000
  Li  Li99      1.0  0.25000  0.16667  0.54060  1.0000
  Li  Li100     1.0  0.75000  0.16667  0.54060  1.0000
  Li  Li101     1.0  0.00000  0.32072  0.52861  1.0000
  Li  Li102     1.0  0.50000  0.32072  0.52861  1.0000
  Li  Li103     1.0  0.00000  0.51261  0.52861  1.0000
  Li  Li104     1.0  0.50000  0.51261  0.52861  1.0000
  Li  Li105     1.0  0.25000  0.66667  0.54060  1.0000
  Li  Li106     1.0  0.75000  0.66667  0.54060  1.0000
  Li  Li107     1.0  0.00000  0.82072  0.52861  1.0000
  Li  Li108     1.0  0.50000  0.82072  0.52861  1.0000
  N   N1        1.0  0.00000  0.16667  0.04032  1.0000
  N   N2        1.0  0.50000  0.16667  0.04032  1.0000
  N   N3        1.0  0.00000  0.66667  0.04032  1.0000
  N   N4        1.0  0.50000  0.66667  0.04032  1.0000
  N   N5        1.0  0.00000  0.41667  0.09364  1.0000
  N   N6        1.0  0.50000  0.41667  0.09364  1.0000
  N   N7        1.0  0.00000  0.91667  0.09364  1.0000
  N   N8        1.0  0.50000  0.91667  0.09364  1.0000
  N   N9        1.0  0.00000  0.16667  0.15953  1.0000
  N   N10       1.0  0.50000  0.16667  0.15953  1.0000
  N   N11       1.0  0.00000  0.66667  0.15953  1.0000
  N   N12       1.0  0.50000  0.66667  0.15953  1.0000
  N   N13       1.0  0.00000  0.41667  0.21976  1.0000
  N   N14       1.0  0.50000  0.41667  0.21976  1.0000
  N   N15       1.0  0.00000  0.91667  0.21976  1.0000
  N   N16       1.0  0.50000  0.91667  0.21976  1.0000
  N   N17       1.0  0.00000  0.16662  0.28180  1.0000
  N   N18       1.0  0.50000  0.16667  0.28206  1.0000
  N   N19       1.0  1.00000  0.66672  0.28195  1.0000
  N   N20       1.0  0.50000  0.66667  0.28235  1.0000
  N   N21       1.0  0.00001  0.41676  0.34440  1.0000
  N   N22       1.0  0.49999  0.41712  0.34505  1.0000
  N   N23       1.0  0.99999  0.91656  0.34456  1.0000
  N   N24       1.0  0.50001  0.91621  0.34501  1.0000
  N   N25       1.0  1.00000  0.16647  0.40495  1.0000
  N   N26       1.0  0.50000  0.16664  0.40538  1.0000
  N   N27       1.0  0.00001  0.66685  0.40501  1.0000
  N   N28       1.0  0.49999  0.66669  0.40713  1.0000
  N   N29       1.0  0.99992  0.41722  0.46955  1.0000
  N   N30       1.0  0.50002  0.42026  0.47202  1.0000
  N   N31       1.0  0.00001  0.91607  0.47091  1.0000
  N   N32       1.0  0.49995  0.91312  0.47201  1.0000
  N   N33       1.0  0.00002  0.16689  0.52407  1.0000
  N   N34       1.0  0.49997  0.16669  0.52363  1.0000
  N   N35       1.0  0.99995  0.66646  0.52389  1.0000
  N   N36       1.0  0.49994  0.66656  0.53726  1.0000
  Li  Li109     1.0  0.49953  0.66589  0.59883  1.0000
